<?xml version="1.0" encoding="UTF-8"?>
<!-- 3km 고속도로 - 현실적인 곡선 및 인터체인지 설계 (학술 논문 수준) -->
<nodes>
    <!-- 메인 고속도로 노드 (3km, 완만한 S-curve) -->
    <node id="west" x="0.0" y="0.0" type="priority"/>
    <node id="curve1" x="600.0" y="15.0" type="priority"/>
    <node id="junction1" x="1500.0" y="35.0" type="priority"/>
    <node id="curve2" x="2100.0" y="20.0" type="priority"/>
    <node id="east" x="3000.0" y="0.0" type="priority"/>

    <!-- 진입 램프 시스템 (Diamond Interchange @ 1.5km) -->
    <!-- 남쪽에서 진입 -->
    <node id="ramp1_start" x="1400.0" y="-180.0" type="priority"/>
    <node id="ramp1_merge_prep" x="1450.0" y="-120.0" type="priority"/>
    <node id="ramp1_accel_start" x="1480.0" y="-60.0" type="priority"/>
</nodes>
