<?xml version="1.0" encoding="UTF-8"?>

<!-- generated on 2025-11-10 14:28:49 by Eclipse SUMO netconvert Version 1.15.0
<configuration xmlns:xsi="http://www.w3.org/2001/XMLSchema-instance" xsi:noNamespaceSchemaLocation="http://sumo.dlr.de/xsd/netconvertConfiguration.xsd">

    <input>
        <node-files value="highway_5km_simple.nod.xml"/>
        <edge-files value="highway_5km_simple.edg.xml"/>
    </input>

    <output>
        <output-file value="highway_5km_simple.net.xml"/>
    </output>

</configuration>
-->

<net version="1.9" junctionCornerDetail="5" limitTurnSpeed="5.50" xmlns:xsi="http://www.w3.org/2001/XMLSchema-instance" xsi:noNamespaceSchemaLocation="http://sumo.dlr.de/xsd/net_file.xsd">

    <location netOffset="0.00,0.00" convBoundary="0.00,0.00,5000.00,0.00" origBoundary="0.00,0.00,5000.00,0.00" projParameter="!"/>

    <edge id=":east_0" function="internal">
        <lane id=":east_0_0" index="0" speed="3.65" length="4.67" shape="5000.00,-1.60 5001.20,-0.80 5001.60,0.00 5001.20,0.80 5000.00,1.60"/>
    </edge>
    <edge id=":west_0" function="internal">
        <lane id=":west_0_0" index="0" speed="3.65" length="4.67" shape="-0.00,1.60 -1.20,0.80 -1.60,0.00 -1.20,-0.80 -0.00,-1.60"/>
    </edge>

    <edge id="-highway_main" from="east" to="west" priority="13" spreadType="center" shape="5000.00,4.80 -0.00,4.80">
        <lane id="-highway_main_0" index="0" speed="33.33" length="5000.00" shape="5000.00,8.00 -0.00,8.00"/>
        <lane id="-highway_main_1" index="1" speed="33.33" length="5000.00" shape="5000.00,4.80 -0.00,4.80"/>
        <lane id="-highway_main_2" index="2" speed="33.33" length="5000.00" shape="5000.00,1.60 -0.00,1.60"/>
    </edge>
    <edge id="highway_main" from="west" to="east" priority="13" spreadType="center" shape="-0.00,-4.80 5000.00,-4.80">
        <lane id="highway_main_0" index="0" speed="33.33" length="5000.00" shape="-0.00,-8.00 5000.00,-8.00"/>
        <lane id="highway_main_1" index="1" speed="33.33" length="5000.00" shape="-0.00,-4.80 5000.00,-4.80"/>
        <lane id="highway_main_2" index="2" speed="33.33" length="5000.00" shape="-0.00,-1.60 5000.00,-1.60"/>
    </edge>

    <junction id="east" type="priority" x="5000.00" y="0.00" incLanes="highway_main_0 highway_main_1 highway_main_2" intLanes=":east_0_0" shape="5000.00,-0.00 5000.00,-9.60 5000.00,0.00">
        <request index="0" response="0" foes="0" cont="0"/>
    </junction>
    <junction id="west" type="priority" x="0.00" y="0.00" incLanes="-highway_main_0 -highway_main_1 -highway_main_2" intLanes=":west_0_0" shape="0.00,0.00 -0.00,9.60 0.00,-0.00">
        <request index="0" response="0" foes="0" cont="0"/>
    </junction>

    <connection from="-highway_main" to="highway_main" fromLane="2" toLane="2" via=":west_0_0" dir="t" state="M"/>
    <connection from="highway_main" to="-highway_main" fromLane="2" toLane="2" via=":east_0_0" dir="t" state="M"/>

    <connection from=":east_0" to="-highway_main" fromLane="0" toLane="2" dir="t" state="M"/>
    <connection from=":west_0" to="highway_main" fromLane="0" toLane="2" dir="t" state="M"/>

</net>
