<?xml version="1.0" encoding="UTF-8"?>
<configuration xmlns:xsi="http://www.w3.org/2001/XMLSchema-instance" xsi:noNamespaceSchemaLocation="http://sumo.dlr.de/xsd/sumoConfiguration.xsd">
    <input>
        <net-file value="/home/crypto/Desktop/meshchain_sim/sumo/highway.net.xml"/>
        <route-files value="/home/crypto/Desktop/meshchain_sim/sumo/highway.rou.xml"/>
        <additional-files value="/home/crypto/Desktop/meshchain_sim/sumo/rsu_locations.add.xml"/>
    </input>
    <time>
        <begin value="0"/>
        <end value="3600"/>
        <step-length value="0.1"/>
    </time>
    <processing>
        <collision.action value="warn"/>
        <collision.mingap-factor value="0"/>
        <time-to-teleport value="-1"/>
    </processing>
    <report>
        <verbose value="false"/>
        <no-step-log value="true"/>
    </report>
</configuration>
