<?xml version="1.0" encoding="UTF-8"?>
<!-- 단순 5km 직선 고속도로 (램프 없음) -->
<nodes>
    <!-- 서쪽 끝 -->
    <node id="west" x="0.0" y="0.0" type="priority"/>

    <!-- 동쪽 끝 (5km) -->
    <node id="east" x="5000.0" y="0.0" type="priority"/>
</nodes>
