<?xml version="1.0" encoding="UTF-8"?>
<!-- 단순 5km 직선 고속도로 시뮬레이션 설정 -->
<configuration xmlns:xsi="http://www.w3.org/2001/XMLSchema-instance" xsi:noNameSpaceSchemaLocation="http://sumo.dlr.de/xsd/sumoConfiguration.xsd">
    <input>
        <net-file value="highway_5km_simple.net.xml"/>
        <route-files value="highway_5km_simple.rou.xml"/>
    </input>

    <time>
        <begin value="0"/>
        <end value="3600"/>
        <step-length value="0.1"/>
    </time>

    <processing>
        <time-to-teleport value="-1"/>
        <max-depart-delay value="1"/>
    </processing>

    <report>
        <verbose value="false"/>
        <no-step-log value="true"/>
    </report>

    <gui_only>
        <gui-settings-file value="gui-settings.xml"/>
    </gui_only>
</configuration>
