<?xml version="1.0" encoding="UTF-8"?>
<!-- 5km 고속도로 시뮬레이션 설정 -->
<configuration xmlns:xsi="http://www.w3.org/2001/XMLSchema-instance" xsi:noNameSpaceSchemaLocation="http://sumo.dlr.de/xsd/sumoConfiguration.xsd">
    <input>
        <net-file value="highway_5km.net.xml"/>
        <route-files value="highway_5km.rou.xml"/>
        <additional-files value="rsu_locations.add.xml"/>
    </input>

    <time>
        <begin value="0"/>
        <end value="3600"/>
        <step-length value="0.1"/>
    </time>

    <processing>
        <time-to-teleport value="-1"/>
        <max-depart-delay value="1"/>
    </processing>

    <routing>
        <device.rerouting.adaptation-steps value="18"/>
        <device.rerouting.adaptation-interval value="10"/>
    </routing>

    <report>
        <verbose value="false"/>
        <no-step-log value="true"/>
    </report>

    <gui_only>
        <gui-settings-file value="gui-settings.xml"/>
    </gui_only>
</configuration>
