<?xml version='1.0' encoding='UTF-8'?>
<routes xmlns:xsi="http://www.w3.org/2001/XMLSchema-instance" xsi:noNamespaceSchemaLocation="http://sumo.dlr.de/xsd/routes_file.xsd"><vType id="car" vClass="passenger" accel="2.0" decel="4.5" sigma="0.3" length="4.5" minGap="2.0" maxSpeed="26.82" color="0.8,0.8,0.8" /><vType id="pickup" vClass="passenger" accel="1.8" decel="4.0" sigma="0.3" length="5.5" minGap="2.5" maxSpeed="24.59" color="0.6,0.6,0.8" /><route id="route_h_A_0_e" edges="A0A1 A1A2 A2A3 A3A4 A4A5" /><flow id="flow_route_h_A_0_e" type="pickup" route="route_h_A_0_e" begin="0" end="3600" probability="1.000" departSpeed="random" /><route id="route_h_A_1_e" edges="A1A2 A2A3 A3A4 A4A5" /><flow id="flow_route_h_A_1_e" type="car" route="route_h_A_1_e" begin="0" end="3600" probability="1.000" departSpeed="random" /><route id="route_h_A_2_e" edges="A2A3 A3A4 A4A5" /><flow id="flow_route_h_A_2_e" type="pickup" route="route_h_A_2_e" begin="0" end="3600" probability="1.000" departSpeed="random" /><route id="route_h_B_0_e" edges="B0B1 B1B2 B2B3 B3B4 B4B5" /><flow id="flow_route_h_B_0_e" type="car" route="route_h_B_0_e" begin="0" end="3600" probability="1.000" departSpeed="random" /><route id="route_h_B_1_e" edges="B1B2 B2B3 B3B4 B4B5" /><flow id="flow_route_h_B_1_e" type="pickup" route="route_h_B_1_e" begin="0" end="3600" probability="1.000" departSpeed="random" /><route id="route_h_B_2_e" edges="B2B3 B3B4 B4B5" /><flow id="flow_route_h_B_2_e" type="car" route="route_h_B_2_e" begin="0" end="3600" probability="1.000" departSpeed="random" /><route id="route_h_C_0_e" edges="C0C1 C1C2 C2C3 C3C4 C4C5" /><flow id="flow_route_h_C_0_e" type="pickup" route="route_h_C_0_e" begin="0" end="3600" probability="1.000" departSpeed="random" /><route id="route_h_C_1_e" edges="C1C2 C2C3 C3C4 C4C5" /><flow id="flow_route_h_C_1_e" type="car" route="route_h_C_1_e" begin="0" end="3600" probability="1.000" departSpeed="random" /><route id="route_h_C_2_e" edges="C2C3 C3C4 C4C5" /><flow id="flow_route_h_C_2_e" type="pickup" route="route_h_C_2_e" begin="0" end="3600" probability="1.000" departSpeed="random" /><route id="route_h_D_0_e" edges="D0D1 D1D2 D2D3 D3D4 D4D5" /><flow id="flow_route_h_D_0_e" type="car" route="route_h_D_0_e" begin="0" end="3600" probability="1.000" departSpeed="random" /><route id="route_h_D_1_e" edges="D1D2 D2D3 D3D4 D4D5" /><flow id="flow_route_h_D_1_e" type="pickup" route="route_h_D_1_e" begin="0" end="3600" probability="1.000" departSpeed="random" /><route id="route_h_D_2_e" edges="D2D3 D3D4 D4D5" /><flow id="flow_route_h_D_2_e" type="car" route="route_h_D_2_e" begin="0" end="3600" probability="1.000" departSpeed="random" /><route id="route_h_E_0_e" edges="E0E1 E1E2 E2E3 E3E4 E4E5" /><flow id="flow_route_h_E_0_e" type="pickup" route="route_h_E_0_e" begin="0" end="3600" probability="1.000" departSpeed="random" /><route id="route_h_E_1_e" edges="E1E2 E2E3 E3E4 E4E5" /><flow id="flow_route_h_E_1_e" type="car" route="route_h_E_1_e" begin="0" end="3600" probability="1.000" departSpeed="random" /><route id="route_h_E_2_e" edges="E2E3 E3E4 E4E5" /><flow id="flow_route_h_E_2_e" type="pickup" route="route_h_E_2_e" begin="0" end="3600" probability="1.000" departSpeed="random" /><route id="route_h_F_0_e" edges="F0F1 F1F2 F2F3 F3F4 F4F5" /><flow id="flow_route_h_F_0_e" type="car" route="route_h_F_0_e" begin="0" end="3600" probability="1.000" departSpeed="random" /><route id="route_h_F_1_e" edges="F1F2 F2F3 F3F4 F4F5" /><flow id="flow_route_h_F_1_e" type="pickup" route="route_h_F_1_e" begin="0" end="3600" probability="1.000" departSpeed="random" /><route id="route_h_F_2_e" edges="F2F3 F3F4 F4F5" /><flow id="flow_route_h_F_2_e" type="car" route="route_h_F_2_e" begin="0" end="3600" probability="1.000" departSpeed="random" /><route id="route_h_G_0_e" edges="G0G1 G1G2 G2G3 G3G4 G4G5" /><flow id="flow_route_h_G_0_e" type="pickup" route="route_h_G_0_e" begin="0" end="3600" probability="1.000" departSpeed="random" /><route id="route_h_G_1_e" edges="G1G2 G2G3 G3G4 G4G5" /><flow id="flow_route_h_G_1_e" type="car" route="route_h_G_1_e" begin="0" end="3600" probability="1.000" departSpeed="random" /><route id="route_h_G_2_e" edges="G2G3 G3G4 G4G5" /><flow id="flow_route_h_G_2_e" type="pickup" route="route_h_G_2_e" begin="0" end="3600" probability="1.000" departSpeed="random" /><route id="route_v_0_0_s" edges="A0B0 B0C0 C0D0 D0E0 E0F0" /><flow id="flow_route_v_0_0_s" type="car" route="route_v_0_0_s" begin="0" end="3600" probability="1.000" departSpeed="random" /><route id="route_v_0_1_s" edges="B0C0 C0D0 D0E0 E0F0 F0G0" /><flow id="flow_route_v_0_1_s" type="pickup" route="route_v_0_1_s" begin="0" end="3600" probability="1.000" departSpeed="random" /><route id="route_v_0_2_s" edges="C0D0 D0E0 E0F0 F0G0 G0H0" /><flow id="flow_route_v_0_2_s" type="car" route="route_v_0_2_s" begin="0" end="3600" probability="1.000" departSpeed="random" /><route id="route_v_0_3_s" edges="D0E0 E0F0 F0G0 G0H0" /><flow id="flow_route_v_0_3_s" type="pickup" route="route_v_0_3_s" begin="0" end="3600" probability="1.000" departSpeed="random" /><route id="route_v_0_4_s" edges="E0F0 F0G0 G0H0" /><flow id="flow_route_v_0_4_s" type="car" route="route_v_0_4_s" begin="0" end="3600" probability="1.000" departSpeed="random" /><route id="route_v_1_0_s" edges="A1B1 B1C1 C1D1 D1E1 E1F1" /><flow id="flow_route_v_1_0_s" type="pickup" route="route_v_1_0_s" begin="0" end="3600" probability="1.000" departSpeed="random" /><route id="route_v_1_1_s" edges="B1C1 C1D1 D1E1 E1F1 F1G1" /><flow id="flow_route_v_1_1_s" type="car" route="route_v_1_1_s" begin="0" end="3600" probability="1.000" departSpeed="random" /><route id="route_v_1_2_s" edges="C1D1 D1E1 E1F1 F1G1 G1H1" /><flow id="flow_route_v_1_2_s" type="pickup" route="route_v_1_2_s" begin="0" end="3600" probability="1.000" departSpeed="random" /><route id="route_v_1_3_s" edges="D1E1 E1F1 F1G1 G1H1" /><flow id="flow_route_v_1_3_s" type="car" route="route_v_1_3_s" begin="0" end="3600" probability="1.000" departSpeed="random" /><route id="route_v_1_4_s" edges="E1F1 F1G1 G1H1" /><flow id="flow_route_v_1_4_s" type="pickup" route="route_v_1_4_s" begin="0" end="3600" probability="1.000" departSpeed="random" /><route id="route_v_2_0_s" edges="A2B2 B2C2 C2D2 D2E2 E2F2" /><flow id="flow_route_v_2_0_s" type="car" route="route_v_2_0_s" begin="0" end="3600" probability="1.000" departSpeed="random" /><route id="route_v_2_1_s" edges="B2C2 C2D2 D2E2 E2F2 F2G2" /><flow id="flow_route_v_2_1_s" type="pickup" route="route_v_2_1_s" begin="0" end="3600" probability="1.000" departSpeed="random" /><route id="route_v_2_2_s" edges="C2D2 D2E2 E2F2 F2G2 G2H2" /><flow id="flow_route_v_2_2_s" type="car" route="route_v_2_2_s" begin="0" end="3600" probability="1.000" departSpeed="random" /><route id="route_v_2_3_s" edges="D2E2 E2F2 F2G2 G2H2" /><flow id="flow_route_v_2_3_s" type="pickup" route="route_v_2_3_s" begin="0" end="3600" probability="1.000" departSpeed="random" /><route id="route_v_2_4_s" edges="E2F2 F2G2 G2H2" /><flow id="flow_route_v_2_4_s" type="car" route="route_v_2_4_s" begin="0" end="3600" probability="1.000" departSpeed="random" /><route id="route_v_3_0_s" edges="A3B3 B3C3 C3D3 D3E3 E3F3" /><flow id="flow_route_v_3_0_s" type="pickup" route="route_v_3_0_s" begin="0" end="3600" probability="1.000" departSpeed="random" /><route id="route_v_3_1_s" edges="B3C3 C3D3 D3E3 E3F3 F3G3" /><flow id="flow_route_v_3_1_s" type="car" route="route_v_3_1_s" begin="0" end="3600" probability="1.000" departSpeed="random" /><route id="route_v_3_2_s" edges="C3D3 D3E3 E3F3 F3G3 G3H3" /><flow id="flow_route_v_3_2_s" type="pickup" route="route_v_3_2_s" begin="0" end="3600" probability="1.000" departSpeed="random" /><route id="route_v_3_3_s" edges="D3E3 E3F3 F3G3 G3H3" /><flow id="flow_route_v_3_3_s" type="car" route="route_v_3_3_s" begin="0" end="3600" probability="1.000" departSpeed="random" /><route id="route_v_3_4_s" edges="E3F3 F3G3 G3H3" /><flow id="flow_route_v_3_4_s" type="pickup" route="route_v_3_4_s" begin="0" end="3600" probability="1.000" departSpeed="random" /><route id="route_v_4_0_s" edges="A4B4 B4C4 C4D4 D4E4 E4F4" /><flow id="flow_route_v_4_0_s" type="car" route="route_v_4_0_s" begin="0" end="3600" probability="1.000" departSpeed="random" /><route id="route_v_4_1_s" edges="B4C4 C4D4 D4E4 E4F4 F4G4" /><flow id="flow_route_v_4_1_s" type="pickup" route="route_v_4_1_s" begin="0" end="3600" probability="1.000" departSpeed="random" /><route id="route_v_4_2_s" edges="C4D4 D4E4 E4F4 F4G4 G4H4" /><flow id="flow_route_v_4_2_s" type="car" route="route_v_4_2_s" begin="0" end="3600" probability="1.000" departSpeed="random" /><route id="route_v_4_3_s" edges="D4E4 E4F4 F4G4 G4H4" /><flow id="flow_route_v_4_3_s" type="pickup" route="route_v_4_3_s" begin="0" end="3600" probability="1.000" departSpeed="random" /><route id="route_v_4_4_s" edges="E4F4 F4G4 G4H4" /><flow id="flow_route_v_4_4_s" type="car" route="route_v_4_4_s" begin="0" end="3600" probability="1.000" departSpeed="random" /><route id="route_v_5_0_s" edges="A5B5 B5C5 C5D5 D5E5 E5F5" /><flow id="flow_route_v_5_0_s" type="pickup" route="route_v_5_0_s" begin="0" end="3600" probability="1.000" departSpeed="random" /><route id="route_v_5_1_s" edges="B5C5 C5D5 D5E5 E5F5 F5G5" /><flow id="flow_route_v_5_1_s" type="car" route="route_v_5_1_s" begin="0" end="3600" probability="1.000" departSpeed="random" /><route id="route_v_5_2_s" edges="C5D5 D5E5 E5F5 F5G5 G5H5" /><flow id="flow_route_v_5_2_s" type="pickup" route="route_v_5_2_s" begin="0" end="3600" probability="1.000" departSpeed="random" /><route id="route_v_5_3_s" edges="D5E5 E5F5 F5G5 G5H5" /><flow id="flow_route_v_5_3_s" type="car" route="route_v_5_3_s" begin="0" end="3600" probability="1.000" departSpeed="random" /><route id="route_v_5_4_s" edges="E5F5 F5G5 G5H5" /><flow id="flow_route_v_5_4_s" type="pickup" route="route_v_5_4_s" begin="0" end="3600" probability="1.000" departSpeed="random" /><flow id="flow_route_h_A_0_e_copy1" type="pickup" route="route_h_A_0_e" begin="0" end="3600" probability="1.000" departSpeed="random" /><flow id="flow_route_h_A_0_e_copy2" type="pickup" route="route_h_A_0_e" begin="0" end="3600" probability="1.000" departSpeed="random" /><flow id="flow_route_h_A_1_e_copy1" type="car" route="route_h_A_1_e" begin="0" end="3600" probability="1.000" departSpeed="random" /><flow id="flow_route_h_A_1_e_copy2" type="car" route="route_h_A_1_e" begin="0" end="3600" probability="1.000" departSpeed="random" /><flow id="flow_route_h_A_2_e_copy1" type="pickup" route="route_h_A_2_e" begin="0" end="3600" probability="1.000" departSpeed="random" /><flow id="flow_route_h_A_2_e_copy2" type="pickup" route="route_h_A_2_e" begin="0" end="3600" probability="1.000" departSpeed="random" /><flow id="flow_route_h_B_0_e_copy1" type="car" route="route_h_B_0_e" begin="0" end="3600" probability="1.000" departSpeed="random" /><flow id="flow_route_h_B_0_e_copy2" type="car" route="route_h_B_0_e" begin="0" end="3600" probability="1.000" departSpeed="random" /><flow id="flow_route_h_B_1_e_copy1" type="pickup" route="route_h_B_1_e" begin="0" end="3600" probability="1.000" departSpeed="random" /><flow id="flow_route_h_B_1_e_copy2" type="pickup" route="route_h_B_1_e" begin="0" end="3600" probability="1.000" departSpeed="random" /><flow id="flow_route_h_B_2_e_copy1" type="car" route="route_h_B_2_e" begin="0" end="3600" probability="1.000" departSpeed="random" /><flow id="flow_route_h_B_2_e_copy2" type="car" route="route_h_B_2_e" begin="0" end="3600" probability="1.000" departSpeed="random" /><flow id="flow_route_h_C_0_e_copy1" type="pickup" route="route_h_C_0_e" begin="0" end="3600" probability="1.000" departSpeed="random" /><flow id="flow_route_h_C_0_e_copy2" type="pickup" route="route_h_C_0_e" begin="0" end="3600" probability="1.000" departSpeed="random" /><flow id="flow_route_h_C_1_e_copy1" type="car" route="route_h_C_1_e" begin="0" end="3600" probability="1.000" departSpeed="random" /><flow id="flow_route_h_C_1_e_copy2" type="car" route="route_h_C_1_e" begin="0" end="3600" probability="1.000" departSpeed="random" /><flow id="flow_route_h_C_2_e_copy1" type="pickup" route="route_h_C_2_e" begin="0" end="3600" probability="1.000" departSpeed="random" /><flow id="flow_route_h_C_2_e_copy2" type="pickup" route="route_h_C_2_e" begin="0" end="3600" probability="1.000" departSpeed="random" /><flow id="flow_route_h_D_0_e_copy1" type="car" route="route_h_D_0_e" begin="0" end="3600" probability="1.000" departSpeed="random" /><flow id="flow_route_h_D_0_e_copy2" type="car" route="route_h_D_0_e" begin="0" end="3600" probability="1.000" departSpeed="random" /><flow id="flow_route_h_D_1_e_copy1" type="pickup" route="route_h_D_1_e" begin="0" end="3600" probability="1.000" departSpeed="random" /><flow id="flow_route_h_D_1_e_copy2" type="pickup" route="route_h_D_1_e" begin="0" end="3600" probability="1.000" departSpeed="random" /><flow id="flow_route_h_D_2_e_copy1" type="car" route="route_h_D_2_e" begin="0" end="3600" probability="1.000" departSpeed="random" /><flow id="flow_route_h_D_2_e_copy2" type="car" route="route_h_D_2_e" begin="0" end="3600" probability="1.000" departSpeed="random" /><flow id="flow_route_h_E_0_e_copy1" type="pickup" route="route_h_E_0_e" begin="0" end="3600" probability="1.000" departSpeed="random" /><flow id="flow_route_h_E_0_e_copy2" type="pickup" route="route_h_E_0_e" begin="0" end="3600" probability="1.000" departSpeed="random" /><flow id="flow_route_h_E_1_e_copy1" type="car" route="route_h_E_1_e" begin="0" end="3600" probability="1.000" departSpeed="random" /><flow id="flow_route_h_E_1_e_copy2" type="car" route="route_h_E_1_e" begin="0" end="3600" probability="1.000" departSpeed="random" /><flow id="flow_route_h_E_2_e_copy1" type="pickup" route="route_h_E_2_e" begin="0" end="3600" probability="1.000" departSpeed="random" /><flow id="flow_route_h_E_2_e_copy2" type="pickup" route="route_h_E_2_e" begin="0" end="3600" probability="1.000" departSpeed="random" /><flow id="flow_route_h_F_0_e_copy1" type="car" route="route_h_F_0_e" begin="0" end="3600" probability="1.000" departSpeed="random" /><flow id="flow_route_h_F_0_e_copy2" type="car" route="route_h_F_0_e" begin="0" end="3600" probability="1.000" departSpeed="random" /><flow id="flow_route_h_F_1_e_copy1" type="pickup" route="route_h_F_1_e" begin="0" end="3600" probability="1.000" departSpeed="random" /><flow id="flow_route_h_F_1_e_copy2" type="pickup" route="route_h_F_1_e" begin="0" end="3600" probability="1.000" departSpeed="random" /><flow id="flow_route_h_F_2_e_copy1" type="car" route="route_h_F_2_e" begin="0" end="3600" probability="1.000" departSpeed="random" /><flow id="flow_route_h_F_2_e_copy2" type="car" route="route_h_F_2_e" begin="0" end="3600" probability="1.000" departSpeed="random" /><flow id="flow_route_h_G_0_e_copy1" type="pickup" route="route_h_G_0_e" begin="0" end="3600" probability="1.000" departSpeed="random" /><flow id="flow_route_h_G_0_e_copy2" type="pickup" route="route_h_G_0_e" begin="0" end="3600" probability="1.000" departSpeed="random" /><flow id="flow_route_h_G_1_e_copy1" type="car" route="route_h_G_1_e" begin="0" end="3600" probability="1.000" departSpeed="random" /><flow id="flow_route_h_G_1_e_copy2" type="car" route="route_h_G_1_e" begin="0" end="3600" probability="1.000" departSpeed="random" /><flow id="flow_route_h_G_2_e_copy1" type="pickup" route="route_h_G_2_e" begin="0" end="3600" probability="1.000" departSpeed="random" /><flow id="flow_route_h_G_2_e_copy2" type="pickup" route="route_h_G_2_e" begin="0" end="3600" probability="1.000" departSpeed="random" /><flow id="flow_route_v_0_0_s_copy1" type="car" route="route_v_0_0_s" begin="0" end="3600" probability="1.000" departSpeed="random" /><flow id="flow_route_v_0_0_s_copy2" type="car" route="route_v_0_0_s" begin="0" end="3600" probability="1.000" departSpeed="random" /><flow id="flow_route_v_0_1_s_copy1" type="pickup" route="route_v_0_1_s" begin="0" end="3600" probability="1.000" departSpeed="random" /><flow id="flow_route_v_0_1_s_copy2" type="pickup" route="route_v_0_1_s" begin="0" end="3600" probability="1.000" departSpeed="random" /><flow id="flow_route_v_0_2_s_copy1" type="car" route="route_v_0_2_s" begin="0" end="3600" probability="1.000" departSpeed="random" /><flow id="flow_route_v_0_2_s_copy2" type="car" route="route_v_0_2_s" begin="0" end="3600" probability="1.000" departSpeed="random" /><flow id="flow_route_v_0_3_s_copy1" type="pickup" route="route_v_0_3_s" begin="0" end="3600" probability="1.000" departSpeed="random" /><flow id="flow_route_v_0_3_s_copy2" type="pickup" route="route_v_0_3_s" begin="0" end="3600" probability="1.000" departSpeed="random" /><flow id="flow_route_v_0_4_s_copy1" type="car" route="route_v_0_4_s" begin="0" end="3600" probability="1.000" departSpeed="random" /><flow id="flow_route_v_0_4_s_copy2" type="car" route="route_v_0_4_s" begin="0" end="3600" probability="1.000" departSpeed="random" /><flow id="flow_route_v_1_0_s_copy1" type="pickup" route="route_v_1_0_s" begin="0" end="3600" probability="1.000" departSpeed="random" /><flow id="flow_route_v_1_0_s_copy2" type="pickup" route="route_v_1_0_s" begin="0" end="3600" probability="1.000" departSpeed="random" /><flow id="flow_route_v_1_1_s_copy1" type="car" route="route_v_1_1_s" begin="0" end="3600" probability="1.000" departSpeed="random" /><flow id="flow_route_v_1_1_s_copy2" type="car" route="route_v_1_1_s" begin="0" end="3600" probability="1.000" departSpeed="random" /><flow id="flow_route_v_1_2_s_copy1" type="pickup" route="route_v_1_2_s" begin="0" end="3600" probability="1.000" departSpeed="random" /><flow id="flow_route_v_1_2_s_copy2" type="pickup" route="route_v_1_2_s" begin="0" end="3600" probability="1.000" departSpeed="random" /><flow id="flow_route_v_1_3_s_copy1" type="car" route="route_v_1_3_s" begin="0" end="3600" probability="1.000" departSpeed="random" /><flow id="flow_route_v_1_3_s_copy2" type="car" route="route_v_1_3_s" begin="0" end="3600" probability="1.000" departSpeed="random" /><flow id="flow_route_v_1_4_s_copy1" type="pickup" route="route_v_1_4_s" begin="0" end="3600" probability="1.000" departSpeed="random" /><flow id="flow_route_v_1_4_s_copy2" type="pickup" route="route_v_1_4_s" begin="0" end="3600" probability="1.000" departSpeed="random" /><flow id="flow_route_v_2_0_s_copy1" type="car" route="route_v_2_0_s" begin="0" end="3600" probability="1.000" departSpeed="random" /><flow id="flow_route_v_2_0_s_copy2" type="car" route="route_v_2_0_s" begin="0" end="3600" probability="1.000" departSpeed="random" /><flow id="flow_route_v_2_1_s_copy1" type="pickup" route="route_v_2_1_s" begin="0" end="3600" probability="1.000" departSpeed="random" /><flow id="flow_route_v_2_1_s_copy2" type="pickup" route="route_v_2_1_s" begin="0" end="3600" probability="1.000" departSpeed="random" /><flow id="flow_route_v_2_2_s_copy1" type="car" route="route_v_2_2_s" begin="0" end="3600" probability="1.000" departSpeed="random" /><flow id="flow_route_v_2_2_s_copy2" type="car" route="route_v_2_2_s" begin="0" end="3600" probability="1.000" departSpeed="random" /><flow id="flow_route_v_2_3_s_copy1" type="pickup" route="route_v_2_3_s" begin="0" end="3600" probability="1.000" departSpeed="random" /><flow id="flow_route_v_2_3_s_copy2" type="pickup" route="route_v_2_3_s" begin="0" end="3600" probability="1.000" departSpeed="random" /><flow id="flow_route_v_2_4_s_copy1" type="car" route="route_v_2_4_s" begin="0" end="3600" probability="1.000" departSpeed="random" /><flow id="flow_route_v_2_4_s_copy2" type="car" route="route_v_2_4_s" begin="0" end="3600" probability="1.000" departSpeed="random" /><flow id="flow_route_v_3_0_s_copy1" type="pickup" route="route_v_3_0_s" begin="0" end="3600" probability="1.000" departSpeed="random" /><flow id="flow_route_v_3_0_s_copy2" type="pickup" route="route_v_3_0_s" begin="0" end="3600" probability="1.000" departSpeed="random" /><flow id="flow_route_v_3_1_s_copy1" type="car" route="route_v_3_1_s" begin="0" end="3600" probability="1.000" departSpeed="random" /><flow id="flow_route_v_3_1_s_copy2" type="car" route="route_v_3_1_s" begin="0" end="3600" probability="1.000" departSpeed="random" /><flow id="flow_route_v_3_2_s_copy1" type="pickup" route="route_v_3_2_s" begin="0" end="3600" probability="1.000" departSpeed="random" /><flow id="flow_route_v_3_2_s_copy2" type="pickup" route="route_v_3_2_s" begin="0" end="3600" probability="1.000" departSpeed="random" /><flow id="flow_route_v_3_3_s_copy1" type="car" route="route_v_3_3_s" begin="0" end="3600" probability="1.000" departSpeed="random" /><flow id="flow_route_v_3_3_s_copy2" type="car" route="route_v_3_3_s" begin="0" end="3600" probability="1.000" departSpeed="random" /><flow id="flow_route_v_3_4_s_copy1" type="pickup" route="route_v_3_4_s" begin="0" end="3600" probability="1.000" departSpeed="random" /><flow id="flow_route_v_3_4_s_copy2" type="pickup" route="route_v_3_4_s" begin="0" end="3600" probability="1.000" departSpeed="random" /><flow id="flow_route_v_4_0_s_copy1" type="car" route="route_v_4_0_s" begin="0" end="3600" probability="1.000" departSpeed="random" /><flow id="flow_route_v_4_0_s_copy2" type="car" route="route_v_4_0_s" begin="0" end="3600" probability="1.000" departSpeed="random" /><flow id="flow_route_v_4_1_s_copy1" type="pickup" route="route_v_4_1_s" begin="0" end="3600" probability="1.000" departSpeed="random" /><flow id="flow_route_v_4_1_s_copy2" type="pickup" route="route_v_4_1_s" begin="0" end="3600" probability="1.000" departSpeed="random" /><flow id="flow_route_v_4_2_s_copy1" type="car" route="route_v_4_2_s" begin="0" end="3600" probability="1.000" departSpeed="random" /><flow id="flow_route_v_4_2_s_copy2" type="car" route="route_v_4_2_s" begin="0" end="3600" probability="1.000" departSpeed="random" /><flow id="flow_route_v_4_3_s_copy1" type="pickup" route="route_v_4_3_s" begin="0" end="3600" probability="1.000" departSpeed="random" /><flow id="flow_route_v_4_3_s_copy2" type="pickup" route="route_v_4_3_s" begin="0" end="3600" probability="1.000" departSpeed="random" /><flow id="flow_route_v_4_4_s_copy1" type="car" route="route_v_4_4_s" begin="0" end="3600" probability="1.000" departSpeed="random" /><flow id="flow_route_v_4_4_s_copy2" type="car" route="route_v_4_4_s" begin="0" end="3600" probability="1.000" departSpeed="random" /><flow id="flow_route_v_5_0_s_copy1" type="pickup" route="route_v_5_0_s" begin="0" end="3600" probability="1.000" departSpeed="random" /><flow id="flow_route_v_5_0_s_copy2" type="pickup" route="route_v_5_0_s" begin="0" end="3600" probability="1.000" departSpeed="random" /><flow id="flow_route_v_5_1_s_copy1" type="car" route="route_v_5_1_s" begin="0" end="3600" probability="1.000" departSpeed="random" /><flow id="flow_route_v_5_1_s_copy2" type="car" route="route_v_5_1_s" begin="0" end="3600" probability="1.000" departSpeed="random" /><flow id="flow_route_v_5_2_s_copy1" type="pickup" route="route_v_5_2_s" begin="0" end="3600" probability="1.000" departSpeed="random" /><flow id="flow_route_v_5_2_s_copy2" type="pickup" route="route_v_5_2_s" begin="0" end="3600" probability="1.000" departSpeed="random" /><flow id="flow_route_v_5_3_s_copy1" type="car" route="route_v_5_3_s" begin="0" end="3600" probability="1.000" departSpeed="random" /><flow id="flow_route_v_5_3_s_copy2" type="car" route="route_v_5_3_s" begin="0" end="3600" probability="1.000" departSpeed="random" /><flow id="flow_route_v_5_4_s_copy1" type="pickup" route="route_v_5_4_s" begin="0" end="3600" probability="1.000" departSpeed="random" /><flow id="flow_route_v_5_4_s_copy2" type="pickup" route="route_v_5_4_s" begin="0" end="3600" probability="1.000" departSpeed="random" /></routes>