<?xml version="1.0" encoding="UTF-8"?>
<!-- Large Grid Configuration for 300+ Vehicles -->
<configuration xmlns:xsi="http://www.w3.org/2001/XMLSchema-instance" xsi:noNamespaceSchemaLocation="http://sumo.dlr.de/xsd/sumoConfiguration.xsd">

    <input>
        <net-file value="large_grid.net.xml"/>
        <route-files value="large_grid_flows.rou.xml"/>
    </input>

    <time>
        <begin value="0"/>
        <end value="3600"/>
    </time>

    <processing>
        <lateral-resolution value="0.8"/>
        <time-to-teleport value="-1"/>
    </processing>

    <report>
        <verbose value="true"/>
        <no-step-log value="true"/>
    </report>

    <gui_only>
        <gui-settings-file value=""/>
    </gui_only>

</configuration>
