<?xml version="1.0" encoding="UTF-8"?>
<!-- 간단한 시골 도로 - 노드 정의 -->
<nodes xmlns:xsi="http://www.w3.org/2001/XMLSchema-instance" xsi:noNamespaceSchemaLocation="http://sumo.dlr.de/xsd/nodes_file.xsd">
    <!-- 메인 도로 노드 (서쪽에서 동쪽으로 2km) -->
    <node id="west" x="0.0" y="0.0" type="priority"/>
    <node id="junction" x="1000.0" y="30.0" type="priority"/>
    <node id="east" x="2000.0" y="0.0" type="priority"/>

    <!-- 농로 노드 -->
    <node id="farm" x="1000.0" y="-100.0" type="priority"/>
</nodes>
