<?xml version="1.0" encoding="UTF-8"?>

<!-- generated on 2025-11-11 20:28:09 by Eclipse SUMO netconvert Version 1.15.0
<configuration xmlns:xsi="http://www.w3.org/2001/XMLSchema-instance" xsi:noNamespaceSchemaLocation="http://sumo.dlr.de/xsd/netconvertConfiguration.xsd">

    <input>
        <node-files value="texas_rural.nod.xml"/>
        <edge-files value="texas_rural.edg.xml"/>
        <type-files value="texas_rural.typ.xml"/>
    </input>

    <output>
        <output-file value="texas_rural.net.xml"/>
    </output>

    <junctions>
        <no-turnarounds value="false"/>
    </junctions>

</configuration>
-->

<net version="1.9" junctionCornerDetail="5" limitTurnSpeed="5.50" xmlns:xsi="http://www.w3.org/2001/XMLSchema-instance" xsi:noNamespaceSchemaLocation="http://sumo.dlr.de/xsd/net_file.xsd">

    <location netOffset="0.00,0.00" convBoundary="0.00,0.00,2000.00,1500.00" origBoundary="0.00,0.00,2000.00,1500.00" projParameter="!"/>

    <type id="county_road" priority="7" numLanes="1" speed="20.12" oneway="0" width="3.30"/>
    <type id="farm_access" priority="4" numLanes="1" speed="13.41" oneway="0" width="3.00"/>
    <type id="fm_road" priority="8" numLanes="1" speed="24.59" oneway="0" width="3.60"/>
    <type id="main_street" priority="7" numLanes="1" speed="17.88" oneway="0" width="3.60"/>
    <type id="town_street" priority="6" numLanes="1" speed="15.65" oneway="0" width="3.30"/>

    <edge id=":1st_north_0" function="internal">
        <lane id=":1st_north_0_0" index="0" speed="6.54" length="9.11" width="3.30" shape="401.65,1092.70 402.00,1095.17 403.06,1096.94 404.83,1098.00 407.30,1098.35"/>
    </edge>
    <edge id=":1st_north_1" function="internal">
        <lane id=":1st_north_1_0" index="0" speed="15.65" length="11.30" width="3.30" shape="396.00,1098.35 407.30,1098.35"/>
    </edge>
    <edge id=":1st_park_0" function="internal">
        <lane id=":1st_park_0_0" index="0" speed="6.54" length="9.11" width="3.30" shape="401.65,392.70 402.00,395.17 403.06,396.94 404.83,398.00 407.30,398.35"/>
    </edge>
    <edge id=":1st_park_1" function="internal">
        <lane id=":1st_park_1_0" index="0" speed="15.65" length="11.30" width="3.30" shape="401.65,392.70 401.65,404.00"/>
    </edge>
    <edge id=":1st_park_2" function="internal">
        <lane id=":1st_park_2_0" index="0" speed="20.12" length="11.30" width="3.30" shape="396.00,398.35 407.30,398.35"/>
    </edge>
    <edge id=":1st_park_3" function="internal">
        <lane id=":1st_park_3_0" index="0" speed="6.54" length="9.11" width="3.30" shape="396.00,398.35 398.47,398.70 400.24,399.76 401.30,401.53 401.65,404.00"/>
    </edge>
    <edge id=":2nd_north_0" function="internal">
        <lane id=":2nd_north_0_0" index="0" speed="6.54" length="9.11" width="3.30" shape="1201.65,1092.70 1202.00,1095.17 1203.06,1096.94 1204.83,1098.00 1207.30,1098.35"/>
    </edge>
    <edge id=":2nd_north_1" function="internal">
        <lane id=":2nd_north_1_0" index="0" speed="15.65" length="11.30" width="3.30" shape="1196.00,1098.35 1207.30,1098.35"/>
    </edge>
    <edge id=":2nd_south_0" function="internal">
        <lane id=":2nd_south_0_0" index="0" speed="6.47" length="8.99" width="3.30" shape="1196.00,-1.50 1198.47,-1.16 1200.24,-0.12 1201.30,1.59 1201.65,4.00"/>
    </edge>
    <edge id=":2nd_store_0" function="internal">
        <lane id=":2nd_store_0_0" index="0" speed="6.54" length="9.11" width="3.30" shape="1201.65,392.70 1202.00,395.17 1203.06,396.94 1204.83,398.00 1207.30,398.35"/>
    </edge>
    <edge id=":2nd_store_1" function="internal">
        <lane id=":2nd_store_1_0" index="0" speed="15.65" length="11.30" width="3.30" shape="1201.65,392.70 1201.65,404.00"/>
    </edge>
    <edge id=":2nd_store_2" function="internal">
        <lane id=":2nd_store_2_0" index="0" speed="20.12" length="11.30" width="3.30" shape="1196.00,398.35 1207.30,398.35"/>
    </edge>
    <edge id=":2nd_store_3" function="internal">
        <lane id=":2nd_store_3_0" index="0" speed="6.54" length="9.11" width="3.30" shape="1196.00,398.35 1198.47,398.70 1200.24,399.76 1201.30,401.53 1201.65,404.00"/>
    </edge>
    <edge id=":county_east_0" function="internal">
        <lane id=":county_east_0_0" index="0" speed="6.51" length="8.99" width="3.00" shape="1596.00,398.35 1598.41,398.70 1600.12,399.76 1601.16,401.53 1601.50,404.00"/>
    </edge>
    <edge id=":farm_south1_0" function="internal">
        <lane id=":farm_south1_0_0" index="0" speed="13.41" length="0.10" width="3.00" shape="600.00,-1.50 600.00,-1.50"/>
    </edge>
    <edge id=":farm_south2_0" function="internal">
        <lane id=":farm_south2_0_0" index="0" speed="13.41" length="0.10" width="3.00" shape="1000.00,-1.50 1000.00,-1.50"/>
    </edge>
    <edge id=":fm_1st_0" function="internal">
        <lane id=":fm_1st_0_0" index="0" speed="6.61" length="9.23" width="3.30" shape="407.30,751.80 404.83,752.16 403.06,753.25 402.00,755.06 401.65,757.60"/>
    </edge>
    <edge id=":fm_1st_1" function="internal">
        <lane id=":fm_1st_1_0" index="0" speed="24.59" length="11.30" width="3.60" shape="407.30,751.80 396.00,751.80"/>
    </edge>
    <edge id=":fm_1st_2" function="internal">
        <lane id=":fm_1st_2_0" index="0" speed="3.87" length="1.62" width="3.60" shape="407.30,751.80 405.95,750.90"/>
    </edge>
    <edge id=":fm_1st_9" function="internal">
        <lane id=":fm_1st_9_0" index="0" speed="3.87" length="3.63" width="3.60" shape="405.95,750.90 405.50,750.00 405.95,749.10 407.30,748.20"/>
    </edge>
    <edge id=":fm_1st_3" function="internal">
        <lane id=":fm_1st_3_0" index="0" speed="6.58" length="9.23" width="3.60" shape="401.65,742.40 402.00,744.94 403.06,746.75 404.83,747.84 407.30,748.20"/>
    </edge>
    <edge id=":fm_1st_4" function="internal">
        <lane id=":fm_1st_4_0" index="0" speed="15.65" length="15.20" width="3.30" shape="401.65,742.40 401.65,757.60"/>
    </edge>
    <edge id=":fm_1st_5" function="internal">
        <lane id=":fm_1st_5_0" index="0" speed="7.49" length="12.29" width="3.60" shape="401.65,742.40 401.30,746.51 400.24,749.45 398.47,751.21 396.00,751.80"/>
    </edge>
    <edge id=":fm_1st_6" function="internal">
        <lane id=":fm_1st_6_0" index="0" speed="24.59" length="11.30" width="3.60" shape="396.00,748.20 407.30,748.20"/>
    </edge>
    <edge id=":fm_1st_7" function="internal">
        <lane id=":fm_1st_7_0" index="0" speed="7.52" length="2.85" width="3.30" shape="396.00,748.20 398.47,748.79 398.69,749.00"/>
    </edge>
    <edge id=":fm_1st_8" function="internal">
        <lane id=":fm_1st_8_0" index="0" speed="3.87" length="1.62" width="3.60" shape="396.00,748.20 397.35,749.10"/>
    </edge>
    <edge id=":fm_1st_10" function="internal">
        <lane id=":fm_1st_10_0" index="0" speed="7.52" length="9.44" width="3.30" shape="398.69,749.00 400.24,750.55 401.30,753.49 401.65,757.60"/>
    </edge>
    <edge id=":fm_1st_11" function="internal">
        <lane id=":fm_1st_11_0" index="0" speed="3.87" length="3.63" width="3.60" shape="397.35,749.10 397.80,750.00 397.35,750.90 396.00,751.80"/>
    </edge>
    <edge id=":fm_2nd_0" function="internal">
        <lane id=":fm_2nd_0_0" index="0" speed="5.94" length="13.93" width="3.00" shape="1222.14,751.80 1217.19,752.09 1215.41,752.95 1216.80,754.39 1221.36,756.41"/>
    </edge>
    <edge id=":fm_2nd_1" function="internal">
        <lane id=":fm_2nd_1_0" index="0" speed="9.99" length="22.56" width="3.30" shape="1222.14,751.80 1213.18,752.16 1206.77,753.25 1202.93,755.06 1201.65,757.60"/>
    </edge>
    <edge id=":fm_2nd_2" function="internal">
        <lane id=":fm_2nd_2_0" index="0" speed="24.59" length="26.14" width="3.60" shape="1222.14,751.80 1196.00,751.80"/>
    </edge>
    <edge id=":fm_2nd_3" function="internal">
        <lane id=":fm_2nd_3_0" index="0" speed="3.87" length="1.75" width="3.60" shape="1222.14,751.80 1220.79,750.90 1220.74,750.79"/>
    </edge>
    <edge id=":fm_2nd_16" function="internal">
        <lane id=":fm_2nd_16_0" index="0" speed="3.87" length="3.51" width="3.60" shape="1220.74,750.79 1220.34,750.00 1220.79,749.10 1222.14,748.20"/>
    </edge>
    <edge id=":fm_2nd_4" function="internal">
        <lane id=":fm_2nd_4_0" index="0" speed="5.87" length="13.93" width="3.60" shape="1221.36,743.59 1216.80,745.61 1215.41,747.05 1217.19,747.91 1222.14,748.20"/>
    </edge>
    <edge id=":fm_2nd_5" function="internal">
        <lane id=":fm_2nd_5_0" index="0" speed="7.76" length="22.03" width="3.00" shape="1221.36,743.59 1214.95,746.80 1212.82,750.00 1214.95,753.20 1221.36,756.41"/>
    </edge>
    <edge id=":fm_2nd_6" function="internal">
        <lane id=":fm_2nd_6_0" index="0" speed="12.23" length="25.11" width="3.30" shape="1221.36,743.59 1212.74,747.24 1206.58,750.79 1202.88,754.24 1201.65,757.60"/>
    </edge>
    <edge id=":fm_2nd_7" function="internal">
        <lane id=":fm_2nd_7_0" index="0" speed="19.00" length="26.72" width="3.60" shape="1221.36,743.59 1216.13,745.61 1208.80,748.35 1201.41,750.76 1196.00,751.80"/>
    </edge>
    <edge id=":fm_2nd_8" function="internal">
        <lane id=":fm_2nd_8_0" index="0" speed="9.97" length="22.56" width="3.60" shape="1201.65,742.40 1202.93,744.94 1206.77,746.75 1213.18,747.84 1222.14,748.20"/>
    </edge>
    <edge id=":fm_2nd_9" function="internal">
        <lane id=":fm_2nd_9_0" index="0" speed="12.24" length="25.11" width="3.00" shape="1201.65,742.40 1202.88,745.76 1206.58,749.21 1212.74,752.76 1221.36,756.41"/>
    </edge>
    <edge id=":fm_2nd_10" function="internal">
        <lane id=":fm_2nd_10_0" index="0" speed="15.65" length="15.20" width="3.30" shape="1201.65,742.40 1201.65,757.60"/>
    </edge>
    <edge id=":fm_2nd_11" function="internal">
        <lane id=":fm_2nd_11_0" index="0" speed="7.49" length="12.29" width="3.60" shape="1201.65,742.40 1201.30,746.51 1200.24,749.45 1198.47,751.21 1196.00,751.80"/>
    </edge>
    <edge id=":fm_2nd_12" function="internal">
        <lane id=":fm_2nd_12_0" index="0" speed="24.59" length="26.14" width="3.60" shape="1196.00,748.20 1222.14,748.20"/>
    </edge>
    <edge id=":fm_2nd_13" function="internal">
        <lane id=":fm_2nd_13_0" index="0" speed="19.00" length="26.72" width="3.00" shape="1196.00,748.20 1201.41,749.24 1208.80,751.65 1216.13,754.39 1221.36,756.41"/>
    </edge>
    <edge id=":fm_2nd_14" function="internal">
        <lane id=":fm_2nd_14_0" index="0" speed="7.52" length="12.29" width="3.30" shape="1196.00,748.20 1198.47,748.79 1200.24,750.55 1201.30,753.49 1201.65,757.60"/>
    </edge>
    <edge id=":fm_2nd_15" function="internal">
        <lane id=":fm_2nd_15_0" index="0" speed="3.87" length="5.26" width="3.60" shape="1196.00,748.20 1197.35,749.10 1197.80,750.00 1197.35,750.90 1196.00,751.80"/>
    </edge>
    <edge id=":fm_east_0" function="internal">
        <lane id=":fm_east_0_0" index="0" speed="3.87" length="5.26" width="3.60" shape="2000.00,748.20 2001.35,749.10 2001.80,750.00 2001.35,750.90 2000.00,751.80"/>
    </edge>
    <edge id=":fm_main_0" function="internal">
        <lane id=":fm_main_0_0" index="0" speed="6.65" length="9.35" width="3.60" shape="798.20,757.60 797.84,755.06 796.75,753.25 794.94,752.16 792.40,751.80"/>
    </edge>
    <edge id=":fm_main_1" function="internal">
        <lane id=":fm_main_1_0" index="0" speed="17.88" length="15.20" width="3.60" shape="798.20,757.60 798.20,742.40"/>
    </edge>
    <edge id=":fm_main_2" function="internal">
        <lane id=":fm_main_2_0" index="0" speed="8.08" length="4.65" width="3.60" shape="798.20,757.60 799.05,754.26 799.75,753.29"/>
    </edge>
    <edge id=":fm_main_3" function="internal">
        <lane id=":fm_main_3_0" index="0" speed="3.87" length="1.62" width="3.60" shape="798.20,757.60 799.10,756.25"/>
    </edge>
    <edge id=":fm_main_16" function="internal">
        <lane id=":fm_main_16_0" index="0" speed="8.08" length="9.71" width="3.60" shape="799.75,753.29 801.24,751.24 804.26,749.05 807.60,748.20"/>
    </edge>
    <edge id=":fm_main_17" function="internal">
        <lane id=":fm_main_17_0" index="0" speed="3.87" length="3.63" width="3.60" shape="799.10,756.25 800.00,755.80 800.90,756.25 801.80,757.60"/>
    </edge>
    <edge id=":fm_main_4" function="internal">
        <lane id=":fm_main_4_0" index="0" speed="6.65" length="9.35" width="3.60" shape="807.60,751.80 805.06,752.16 803.25,753.25 802.16,755.06 801.80,757.60"/>
    </edge>
    <edge id=":fm_main_5" function="internal">
        <lane id=":fm_main_5_0" index="0" speed="24.59" length="15.20" width="3.60" shape="807.60,751.80 792.40,751.80"/>
    </edge>
    <edge id=":fm_main_6" function="internal">
        <lane id=":fm_main_6_0" index="0" speed="8.08" length="4.65" width="3.60" shape="807.60,751.80 804.26,750.95 803.29,750.25"/>
    </edge>
    <edge id=":fm_main_7" function="internal">
        <lane id=":fm_main_7_0" index="0" speed="3.87" length="1.62" width="3.60" shape="807.60,751.80 806.25,750.90"/>
    </edge>
    <edge id=":fm_main_18" function="internal">
        <lane id=":fm_main_18_0" index="0" speed="8.08" length="9.71" width="3.60" shape="803.29,750.25 801.24,748.76 799.05,745.74 798.20,742.40"/>
    </edge>
    <edge id=":fm_main_19" function="internal">
        <lane id=":fm_main_19_0" index="0" speed="3.87" length="3.63" width="3.60" shape="806.25,750.90 805.80,750.00 806.25,749.10 807.60,748.20"/>
    </edge>
    <edge id=":fm_main_8" function="internal">
        <lane id=":fm_main_8_0" index="0" speed="6.65" length="9.35" width="3.60" shape="801.80,742.40 802.16,744.94 803.25,746.75 805.06,747.84 807.60,748.20"/>
    </edge>
    <edge id=":fm_main_9" function="internal">
        <lane id=":fm_main_9_0" index="0" speed="17.88" length="15.20" width="3.60" shape="801.80,742.40 801.80,757.60"/>
    </edge>
    <edge id=":fm_main_10" function="internal">
        <lane id=":fm_main_10_0" index="0" speed="8.08" length="4.65" width="3.60" shape="801.80,742.40 800.95,745.74 800.25,746.71"/>
    </edge>
    <edge id=":fm_main_11" function="internal">
        <lane id=":fm_main_11_0" index="0" speed="3.87" length="1.62" width="3.60" shape="801.80,742.40 800.90,743.75"/>
    </edge>
    <edge id=":fm_main_20" function="internal">
        <lane id=":fm_main_20_0" index="0" speed="8.08" length="9.71" width="3.60" shape="800.25,746.71 798.76,748.76 795.74,750.95 792.40,751.80"/>
    </edge>
    <edge id=":fm_main_21" function="internal">
        <lane id=":fm_main_21_0" index="0" speed="3.87" length="3.63" width="3.60" shape="800.90,743.75 800.00,744.20 799.10,743.75 798.20,742.40"/>
    </edge>
    <edge id=":fm_main_12" function="internal">
        <lane id=":fm_main_12_0" index="0" speed="6.65" length="9.35" width="3.60" shape="792.40,748.20 794.94,747.84 796.75,746.75 797.84,744.94 798.20,742.40"/>
    </edge>
    <edge id=":fm_main_13" function="internal">
        <lane id=":fm_main_13_0" index="0" speed="24.59" length="15.20" width="3.60" shape="792.40,748.20 807.60,748.20"/>
    </edge>
    <edge id=":fm_main_14" function="internal">
        <lane id=":fm_main_14_0" index="0" speed="8.08" length="4.65" width="3.60" shape="792.40,748.20 795.74,749.05 796.71,749.75"/>
    </edge>
    <edge id=":fm_main_15" function="internal">
        <lane id=":fm_main_15_0" index="0" speed="3.87" length="1.62" width="3.60" shape="792.40,748.20 793.75,749.10"/>
    </edge>
    <edge id=":fm_main_22" function="internal">
        <lane id=":fm_main_22_0" index="0" speed="8.08" length="9.71" width="3.60" shape="796.71,749.75 798.76,751.24 800.95,754.26 801.80,757.60"/>
    </edge>
    <edge id=":fm_main_23" function="internal">
        <lane id=":fm_main_23_0" index="0" speed="3.87" length="3.63" width="3.60" shape="793.75,749.10 794.20,750.00 793.75,750.90 792.40,751.80"/>
    </edge>
    <edge id=":fm_west_0" function="internal">
        <lane id=":fm_west_0_0" index="0" speed="3.87" length="5.26" width="3.60" shape="0.00,751.80 -1.35,750.90 -1.80,750.00 -1.35,749.10 0.00,748.20"/>
    </edge>
    <edge id=":main_church_0" function="internal">
        <lane id=":main_church_0_0" index="0" speed="17.88" length="11.30" width="3.60" shape="798.20,1104.00 798.20,1092.70"/>
    </edge>
    <edge id=":main_church_1" function="internal">
        <lane id=":main_church_1_0" index="0" speed="7.52" length="2.85" width="3.30" shape="798.20,1104.00 798.79,1101.53 799.00,1101.31"/>
    </edge>
    <edge id=":main_church_2" function="internal">
        <lane id=":main_church_2_0" index="0" speed="3.87" length="1.62" width="3.60" shape="798.20,1104.00 799.10,1102.65"/>
    </edge>
    <edge id=":main_church_9" function="internal">
        <lane id=":main_church_9_0" index="0" speed="7.52" length="9.44" width="3.30" shape="799.00,1101.31 800.55,1099.76 803.49,1098.70 807.60,1098.35"/>
    </edge>
    <edge id=":main_church_10" function="internal">
        <lane id=":main_church_10_0" index="0" speed="3.87" length="3.63" width="3.60" shape="799.10,1102.65 800.00,1102.20 800.90,1102.65 801.80,1104.00"/>
    </edge>
    <edge id=":main_church_3" function="internal">
        <lane id=":main_church_3_0" index="0" speed="6.61" length="9.23" width="3.30" shape="801.80,1092.70 802.16,1095.17 803.25,1096.94 805.06,1098.00 807.60,1098.35"/>
    </edge>
    <edge id=":main_church_4" function="internal">
        <lane id=":main_church_4_0" index="0" speed="17.88" length="11.30" width="3.60" shape="801.80,1092.70 801.80,1104.00"/>
    </edge>
    <edge id=":main_church_5" function="internal">
        <lane id=":main_church_5_0" index="0" speed="3.87" length="1.62" width="3.60" shape="801.80,1092.70 800.90,1094.05"/>
    </edge>
    <edge id=":main_church_11" function="internal">
        <lane id=":main_church_11_0" index="0" speed="3.87" length="3.63" width="3.60" shape="800.90,1094.05 800.00,1094.50 799.10,1094.05 798.20,1092.70"/>
    </edge>
    <edge id=":main_church_6" function="internal">
        <lane id=":main_church_6_0" index="0" speed="6.58" length="9.23" width="3.60" shape="792.40,1098.35 794.94,1098.00 796.75,1096.94 797.84,1095.17 798.20,1092.70"/>
    </edge>
    <edge id=":main_church_7" function="internal">
        <lane id=":main_church_7_0" index="0" speed="15.65" length="15.20" width="3.30" shape="792.40,1098.35 807.60,1098.35"/>
    </edge>
    <edge id=":main_church_8" function="internal">
        <lane id=":main_church_8_0" index="0" speed="7.49" length="12.29" width="3.60" shape="792.40,1098.35 796.51,1098.70 799.45,1099.76 801.21,1101.53 801.80,1104.00"/>
    </edge>
    <edge id=":main_north_0" function="internal">
        <lane id=":main_north_0_0" index="0" speed="3.87" length="5.26" width="3.60" shape="801.80,1500.00 800.90,1501.35 800.00,1501.80 799.10,1501.35 798.20,1500.00"/>
    </edge>
    <edge id=":main_school_0" function="internal">
        <lane id=":main_school_0_0" index="0" speed="17.88" length="11.30" width="3.60" shape="798.20,404.00 798.20,392.70"/>
    </edge>
    <edge id=":main_school_1" function="internal">
        <lane id=":main_school_1_0" index="0" speed="7.52" length="12.29" width="3.30" shape="798.20,404.00 798.79,401.53 800.55,399.76 803.49,398.70 807.60,398.35"/>
    </edge>
    <edge id=":main_school_2" function="internal">
        <lane id=":main_school_2_0" index="0" speed="3.87" length="5.26" width="3.60" shape="798.20,404.00 799.10,402.65 800.00,402.20 800.90,402.65 801.80,404.00"/>
    </edge>
    <edge id=":main_school_3" function="internal">
        <lane id=":main_school_3_0" index="0" speed="6.61" length="9.23" width="3.30" shape="801.80,392.70 802.16,395.17 803.25,396.94 805.06,398.00 807.60,398.35"/>
    </edge>
    <edge id=":main_school_4" function="internal">
        <lane id=":main_school_4_0" index="0" speed="17.88" length="11.30" width="3.60" shape="801.80,392.70 801.80,404.00"/>
    </edge>
    <edge id=":main_school_5" function="internal">
        <lane id=":main_school_5_0" index="0" speed="3.87" length="5.26" width="3.60" shape="801.80,392.70 800.90,394.05 800.00,394.50 799.10,394.05 798.20,392.70"/>
    </edge>
    <edge id=":main_school_6" function="internal">
        <lane id=":main_school_6_0" index="0" speed="6.58" length="9.23" width="3.60" shape="792.40,398.35 794.94,398.00 796.75,396.94 797.84,395.17 798.20,392.70"/>
    </edge>
    <edge id=":main_school_7" function="internal">
        <lane id=":main_school_7_0" index="0" speed="20.12" length="15.20" width="3.30" shape="792.40,398.35 807.60,398.35"/>
    </edge>
    <edge id=":main_school_8" function="internal">
        <lane id=":main_school_8_0" index="0" speed="7.49" length="12.29" width="3.60" shape="792.40,398.35 796.51,398.70 799.45,399.76 801.21,401.53 801.80,404.00"/>
    </edge>
    <edge id=":main_south_0" function="internal">
        <lane id=":main_south_0_0" index="0" speed="6.29" length="8.23" width="3.00" shape="798.20,1.50 798.63,0.19 799.93,-0.75 802.08,-1.31 805.10,-1.50"/>
    </edge>
    <edge id=":main_south_1" function="internal">
        <lane id=":main_south_1_0" index="0" speed="3.87" length="5.26" width="3.60" shape="798.20,1.50 799.10,0.15 800.00,-0.30 800.90,0.15 801.80,1.50"/>
    </edge>
    <edge id=":main_south_2" function="internal">
        <lane id=":main_south_2_0" index="0" speed="13.41" length="10.20" width="3.00" shape="794.90,-1.50 805.10,-1.50"/>
    </edge>
    <edge id=":main_south_3" function="internal">
        <lane id=":main_south_3_0" index="0" speed="6.22" length="8.23" width="3.60" shape="794.90,-1.50 797.92,-1.31 800.08,-0.75 801.37,0.19 801.80,1.50"/>
    </edge>
    <edge id=":ranch_east1_0" function="internal">
        <lane id=":ranch_east1_0_0" index="0" speed="3.84" length="1.83" width="3.00" shape="1601.50,600.00 1601.44,600.48 1601.26,600.87 1600.95,601.18 1600.53,601.40"/>
    </edge>
    <edge id=":ranch_east2_0" function="internal">
        <lane id=":ranch_east2_0_0" index="0" speed="3.84" length="1.83" width="3.00" shape="1600.53,898.60 1600.95,898.82 1601.26,899.13 1601.44,899.52 1601.50,900.00"/>
    </edge>

    <edge id="1st_fm_to_n" from="fm_1st" to="1st_north" priority="6" type="town_street">
        <lane id="1st_fm_to_n_0" index="0" speed="15.65" length="335.10" width="3.30" shape="401.65,757.60 401.65,1092.70"/>
    </edge>
    <edge id="1st_park_to_fm" from="1st_park" to="fm_1st" priority="6" type="town_street">
        <lane id="1st_park_to_fm_0" index="0" speed="15.65" length="338.40" width="3.30" shape="401.65,404.00 401.65,742.40"/>
    </edge>
    <edge id="1st_s_to_park" from="1st_south" to="1st_park" priority="6" type="town_street">
        <lane id="1st_s_to_park_0" index="0" speed="15.65" length="391.20" width="3.30" shape="401.65,1.50 401.65,392.70"/>
    </edge>
    <edge id="2nd_fm_to_n" from="fm_2nd" to="2nd_north" priority="6" type="town_street">
        <lane id="2nd_fm_to_n_0" index="0" speed="15.65" length="335.10" width="3.30" shape="1201.65,757.60 1201.65,1092.70"/>
    </edge>
    <edge id="2nd_s_to_store" from="2nd_south" to="2nd_store" priority="6" type="town_street">
        <lane id="2nd_s_to_store_0" index="0" speed="15.65" length="388.70" width="3.30" shape="1201.65,4.00 1201.65,392.70"/>
    </edge>
    <edge id="2nd_store_to_fm" from="2nd_store" to="fm_2nd" priority="6" type="town_street">
        <lane id="2nd_store_to_fm_0" index="0" speed="15.65" length="338.40" width="3.30" shape="1201.65,404.00 1201.65,742.40"/>
    </edge>
    <edge id="church_1st_to_main" from="1st_north" to="main_church" priority="6" type="town_street">
        <lane id="church_1st_to_main_0" index="0" speed="15.65" length="385.10" width="3.30" shape="407.30,1098.35 792.40,1098.35"/>
    </edge>
    <edge id="church_2nd_to_e" from="2nd_north" to="church_east" priority="6" type="town_street">
        <lane id="church_2nd_to_e_0" index="0" speed="15.65" length="391.20" width="3.30" shape="1207.30,1098.35 1598.50,1098.35"/>
    </edge>
    <edge id="church_main_to_2nd" from="main_church" to="2nd_north" priority="6" type="town_street">
        <lane id="church_main_to_2nd_0" index="0" speed="15.65" length="388.40" width="3.30" shape="807.60,1098.35 1196.00,1098.35"/>
    </edge>
    <edge id="church_w_to_1st" from="church_west" to="1st_north" priority="6" type="town_street">
        <lane id="church_w_to_1st_0" index="0" speed="15.65" length="396.00" width="3.30" shape="0.00,1098.35 396.00,1098.35"/>
    </edge>
    <edge id="county_1st_to_main" from="1st_park" to="main_school" priority="7" type="county_road">
        <lane id="county_1st_to_main_0" index="0" speed="20.12" length="385.10" width="3.30" shape="407.30,398.35 792.40,398.35"/>
    </edge>
    <edge id="county_2nd_to_e" from="2nd_store" to="county_east" priority="7" type="county_road">
        <lane id="county_2nd_to_e_0" index="0" speed="20.12" length="388.70" width="3.30" shape="1207.30,398.35 1596.00,398.35"/>
    </edge>
    <edge id="county_main_to_2nd" from="main_school" to="2nd_store" priority="7" type="county_road">
        <lane id="county_main_to_2nd_0" index="0" speed="20.12" length="388.40" width="3.30" shape="807.60,398.35 1196.00,398.35"/>
    </edge>
    <edge id="county_w_to_1st" from="county_west" to="1st_park" priority="7" type="county_road">
        <lane id="county_w_to_1st_0" index="0" speed="20.12" length="396.00" width="3.30" shape="0.00,398.35 396.00,398.35"/>
    </edge>
    <edge id="farm_1st_to_farm1" from="1st_south" to="farm_south1" priority="4" type="farm_access">
        <lane id="farm_1st_to_farm1_0" index="0" speed="13.41" length="195.20" width="3.00" shape="404.80,-1.50 600.00,-1.50"/>
    </edge>
    <edge id="farm_farm1_to_main" from="farm_south1" to="main_south" priority="4" type="farm_access">
        <lane id="farm_farm1_to_main_0" index="0" speed="13.41" length="194.90" width="3.00" shape="600.00,-1.50 794.90,-1.50"/>
    </edge>
    <edge id="farm_farm2_to_2nd" from="farm_south2" to="2nd_south" priority="4" type="farm_access">
        <lane id="farm_farm2_to_2nd_0" index="0" speed="13.41" length="196.00" width="3.00" shape="1000.00,-1.50 1196.00,-1.50"/>
    </edge>
    <edge id="farm_main_to_farm2" from="main_south" to="farm_south2" priority="4" type="farm_access">
        <lane id="farm_main_to_farm2_0" index="0" speed="13.41" length="194.90" width="3.00" shape="805.10,-1.50 1000.00,-1.50"/>
    </edge>
    <edge id="fm_1st_to_main" from="fm_1st" to="fm_main" priority="8" type="fm_road">
        <lane id="fm_1st_to_main_0" index="0" speed="24.59" length="385.10" width="3.60" shape="407.30,748.20 792.40,748.20"/>
    </edge>
    <edge id="fm_1st_to_w" from="fm_1st" to="fm_west" priority="8" type="fm_road">
        <lane id="fm_1st_to_w_0" index="0" speed="24.59" length="396.00" width="3.60" shape="396.00,751.80 0.00,751.80"/>
    </edge>
    <edge id="fm_2nd_to_east" from="fm_2nd" to="fm_east" priority="8" type="fm_road">
        <lane id="fm_2nd_to_east_0" index="0" speed="24.59" length="777.86" width="3.60" shape="1222.14,748.20 2000.00,748.20"/>
    </edge>
    <edge id="fm_2nd_to_main" from="fm_2nd" to="fm_main" priority="8" type="fm_road">
        <lane id="fm_2nd_to_main_0" index="0" speed="24.59" length="388.40" width="3.60" shape="1196.00,751.80 807.60,751.80"/>
    </edge>
    <edge id="fm_east_to_2nd" from="fm_east" to="fm_2nd" priority="8" type="fm_road">
        <lane id="fm_east_to_2nd_0" index="0" speed="24.59" length="777.86" width="3.60" shape="2000.00,751.80 1222.14,751.80"/>
    </edge>
    <edge id="fm_main_to_1st" from="fm_main" to="fm_1st" priority="8" type="fm_road">
        <lane id="fm_main_to_1st_0" index="0" speed="24.59" length="385.10" width="3.60" shape="792.40,751.80 407.30,751.80"/>
    </edge>
    <edge id="fm_main_to_2nd" from="fm_main" to="fm_2nd" priority="8" type="fm_road">
        <lane id="fm_main_to_2nd_0" index="0" speed="24.59" length="388.40" width="3.60" shape="807.60,748.20 1196.00,748.20"/>
    </edge>
    <edge id="fm_w_to_1st" from="fm_west" to="fm_1st" priority="8" type="fm_road">
        <lane id="fm_w_to_1st_0" index="0" speed="24.59" length="396.00" width="3.60" shape="0.00,748.20 396.00,748.20"/>
    </edge>
    <edge id="main_church_to_fm" from="main_church" to="fm_main" priority="7" type="main_street">
        <lane id="main_church_to_fm_0" index="0" speed="17.88" length="335.10" width="3.60" shape="798.20,1092.70 798.20,757.60"/>
    </edge>
    <edge id="main_church_to_n" from="main_church" to="main_north" priority="7" type="main_street">
        <lane id="main_church_to_n_0" index="0" speed="17.88" length="396.00" width="3.60" shape="801.80,1104.00 801.80,1500.00"/>
    </edge>
    <edge id="main_fm_to_church" from="fm_main" to="main_church" priority="7" type="main_street">
        <lane id="main_fm_to_church_0" index="0" speed="17.88" length="335.10" width="3.60" shape="801.80,757.60 801.80,1092.70"/>
    </edge>
    <edge id="main_fm_to_school" from="fm_main" to="main_school" priority="7" type="main_street">
        <lane id="main_fm_to_school_0" index="0" speed="17.88" length="338.40" width="3.60" shape="798.20,742.40 798.20,404.00"/>
    </edge>
    <edge id="main_n_to_church" from="main_north" to="main_church" priority="7" type="main_street">
        <lane id="main_n_to_church_0" index="0" speed="17.88" length="396.00" width="3.60" shape="798.20,1500.00 798.20,1104.00"/>
    </edge>
    <edge id="main_s_to_school" from="main_south" to="main_school" priority="7" type="main_street">
        <lane id="main_s_to_school_0" index="0" speed="17.88" length="391.20" width="3.60" shape="801.80,1.50 801.80,392.70"/>
    </edge>
    <edge id="main_school_to_fm" from="main_school" to="fm_main" priority="7" type="main_street">
        <lane id="main_school_to_fm_0" index="0" speed="17.88" length="338.40" width="3.60" shape="801.80,404.00 801.80,742.40"/>
    </edge>
    <edge id="main_school_to_s" from="main_school" to="main_south" priority="7" type="main_street">
        <lane id="main_school_to_s_0" index="0" speed="17.88" length="391.20" width="3.60" shape="798.20,392.70 798.20,1.50"/>
    </edge>